.subckt tran_abc_ab a b c alpha beta
B1 alpha 0 V=(2/3)*V(a)-(1/3)*V(b)-(1/3)*V(c)
B2 beta 0 V=(sqrt(3)/3)*V(b)-(sqrt(3)/3)*V(c)
.ends tran_abc_ab