.subckt sawtooth out
V1 out 0 PULSE({Vlow} {Vhigh} 0 {0.99*1/f} {0.01*1/f} 0 {1/f})
.ends sawtooth